{
   "completed_at" : "20241108T185518Z",
   "completed_status" : "Success",
   "created_at" : "2024-11-08T12:55:07.098377",
   "current_step" : 8,
   "eplusout_err" : "Program Version,EnergyPlus, Version 24.1.0-9d7789a3ac, YMD=2024.11.08 12:55,\n   ** Warning ** Timestep: Requested number (1) is less than the suggested minimum of 4.\n   **   ~~~   ** Please see entry for Timestep in Input/Output Reference for discussion of considerations.\n   ** Warning ** PerformancePrecisionTradeoffs: Carroll MRT radiant exchange method is selected.\n   ************* Note that the following warning(s) may/will occur if you have not enclosed your zone completely.\n   ** Warning ** Entered Zone Volumes differ from calculated zone volume(s).\n   **   ~~~   ** ...use Output:Diagnostics,DisplayExtraWarnings; to show more details on individual zones.\n   ** Warning ** CalculateZoneVolume: 3 zones are not fully enclosed. For more details use:  Output:Diagnostics,DisplayExtrawarnings; \n   ** Warning ** GetDXCoils: Coil:Heating:DX:SingleSpeed=\"AIR SOURCE HEAT PUMP HTG COIL\" curve values\n   **   ~~~   ** ... Defrost Energy Input Ratio Function of Temperature Curve Name = DEFROSTEIR output is not equal to 1.0 (+ or - 10%) at rated conditions.\n   **   ~~~   ** ... Curve output at rated conditions = 0.152\n   ** Warning ** Check input. Pump nominal power or motor efficiency is set to 0, for pump=PUMP VARIABLE SPEED 1\n   ** Warning ** Output:Meter: invalid Key Name=\"NATURALGAS:FACILITY\" - not found.\n   ** Warning ** Output:Meter: invalid Key Name=\"DISTRICTHEATINGWATER:FACILITY\" - not found.\n   ** Warning ** Output:Meter: invalid Key Name=\"DISTRICTCOOLING:FACILITY\" - not found.\n   ** Warning ** Output:Meter:MeterFileOnly: invalid Key Name=\"NATURALGAS:FACILITY\" - not found.\n   ** Warning ** Output:Meter:MeterFileOnly requested for \"Electricity:Facility\" (TimeStep), already on \"Output:Meter\". Will report to both eplusout.eso and eplusout.mtr\n   ************* Testing Individual Branch Integrity\n   ************* All Branches passed integrity testing\n   ************* Testing Individual Supply Air Path Integrity\n   ************* All Supply Air Paths passed integrity testing\n   ************* Testing Individual Return Air Path Integrity\n   ************* All Return Air Paths passed integrity testing\n   ************* No node connection errors were found.\n   ************* Beginning Simulation\n   ** Warning ** Processing Monthly Tabular Reports: Variable names not valid for this simulation\n   **   ~~~   ** ...use Output:Diagnostics,DisplayExtraWarnings; to show more details on individual variables.\n   ** Warning ** The resource referenced by LifeCycleCost:UsePriceEscalation= \"U.S. AVG  COMMERCIAL-ELECTRICITY\" has no energy cost. \n   **   ~~~   ** ... It is likely that the wrong resource is used. The resource should match the meter used in Utility:Tariff.\n   ** Warning ** The resource referenced by LifeCycleCost:UsePriceEscalation= \"U.S. AVG  COMMERCIAL-DISTILLATE OIL\" has no energy cost. \n   **   ~~~   ** ... It is likely that the wrong resource is used. The resource should match the meter used in Utility:Tariff.\n   ** Warning ** The resource referenced by LifeCycleCost:UsePriceEscalation= \"U.S. AVG  COMMERCIAL-RESIDUAL OIL\" has no energy cost. \n   **   ~~~   ** ... It is likely that the wrong resource is used. The resource should match the meter used in Utility:Tariff.\n   ** Warning ** The resource referenced by LifeCycleCost:UsePriceEscalation= \"U.S. AVG  COMMERCIAL-NATURAL GAS\" has no energy cost. \n   **   ~~~   ** ... It is likely that the wrong resource is used. The resource should match the meter used in Utility:Tariff.\n   ** Warning ** The resource referenced by LifeCycleCost:UsePriceEscalation= \"U.S. AVG  COMMERCIAL-COAL\" has no energy cost. \n   **   ~~~   ** ... It is likely that the wrong resource is used. The resource should match the meter used in Utility:Tariff.\n   ************* Simulation Error Summary *************\n   ************* There are 1 unused objects in input.\n   ************* Use Output:Diagnostics,DisplayUnusedObjects; to see them.\n   ************* There are 1 unused schedules in input.\n   ************* There are 1 unused week schedules in input.\n   ************* There are 1 unused day schedules in input.\n   ************* Use Output:Diagnostics,DisplayUnusedSchedules; to see them.\n   ************* EnergyPlus Warmup Error Summary. During Warmup: 0 Warning; 0 Severe Errors.\n   ************* EnergyPlus Sizing Error Summary. During Sizing: 0 Warning; 0 Severe Errors.\n   ************* EnergyPlus Completed Successfully-- 17 Warning; 0 Severe Errors; Elapsed Time=00hr 00min  1.30sec\n",
   "file_paths" : 
   [
      "/Users/radhikar/Documents/buildstock2025/resstock2025/project_national/national_upgrades/simulation_output/up01/bldg0000001/generated_files",
      "./files",
      "./weather",
      "../../files",
      "../../weather",
      "./"
   ],
   "hash" : "F31250D2",
   "id" : "bldg0000001up01",
   "measure_paths" : 
   [
      "measures",
      "resources/hpxml-measures"
   ],
   "run_options" : 
   {
      "skip_zip_results" : true
   },
   "started_at" : "20241108T185507Z",
   "steps" : 
   [
      {
         "arguments" : 
         {
            "building_id" : 1,
            "emissions_electricity_folders" : "data/emissions/cambium/2022/LRMER_MidCase_15",
            "emissions_fuel_oil_values" : "",
            "emissions_natural_gas_values" : "",
            "emissions_propane_values" : "",
            "emissions_scenario_names" : "LRMER_MidCase_15",
            "emissions_types" : "CO2e",
            "emissions_wood_values" : "",
            "sample_weight" : 34911755,
            "simulation_control_run_period_begin_day_of_month" : 1,
            "simulation_control_run_period_begin_month" : 1,
            "simulation_control_run_period_calendar_year" : 2007,
            "simulation_control_run_period_end_day_of_month" : 31,
            "simulation_control_run_period_end_month" : 12,
            "simulation_control_timestep" : 60,
            "utility_bill_detailed_filepaths" : "",
            "utility_bill_electricity_fixed_charges" : "",
            "utility_bill_electricity_marginal_rates" : "",
            "utility_bill_fuel_oil_fixed_charges" : "",
            "utility_bill_fuel_oil_marginal_rates" : "",
            "utility_bill_natural_gas_fixed_charges" : "",
            "utility_bill_natural_gas_marginal_rates" : "",
            "utility_bill_propane_fixed_charges" : "",
            "utility_bill_propane_marginal_rates" : "",
            "utility_bill_pv_compensation_types" : "",
            "utility_bill_pv_feed_in_tariff_rates" : "",
            "utility_bill_pv_monthly_grid_connection_fee_units" : "",
            "utility_bill_pv_monthly_grid_connection_fees" : "",
            "utility_bill_pv_net_metering_annual_excess_sellback_rate_types" : "",
            "utility_bill_pv_net_metering_annual_excess_sellback_rates" : "",
            "utility_bill_scenario_names" : "Bills",
            "utility_bill_simple_filepaths" : "",
            "utility_bill_wood_fixed_charges" : "",
            "utility_bill_wood_marginal_rates" : ""
         },
         "measure_dir_name" : "BuildExistingModel",
         "result" : 
         {
            "completed_at" : "20241108T185512Z",
            "measure_class_name" : "BuildExistingModel",
            "measure_display_name" : "Build Existing Model",
            "measure_name" : "build_existing_model",
            "measure_taxonomy" : "Whole Building.Space Types",
            "measure_type" : "ModelMeasure",
            "measure_uid" : "dedf59bb-3b88-4f16-8755-2c1ff5519cbf",
            "measure_version_id" : "be99be23-ddd9-49c4-804a-cb9853764e3e",
            "measure_version_modified" : "20240904T210110Z",
            "measure_xml_checksum" : "2C38F48B",
            "started_at" : "20241108T185508Z",
            "stderr" : "",
            "stdout" : "[openstudio.measure.OSRunner] <Error> Cannot find current Workflow Step\n[openstudio.measure.OSRunner] <Error> Cannot find current Workflow Step\n[openstudio.measure.OSRunner] <Error> Cannot find current Workflow Step\n",
            "step_errors" : [],
            "step_files" : [],
            "step_info" : 
            [
               "Assigning option 'Non-CBSA East South Central' for parameter 'AHS Region'.",
               "Assigning option 'No' for parameter 'AIANNH Area'.",
               "Assigning option '2A' for parameter 'ASHRAE IECC Climate Zone 2004'.",
               "Assigning option '2A - FL, GA, AL, MS' for parameter 'ASHRAE IECC Climate Zone 2004 - 2A Split'.",
               "Assigning option '120-150%' for parameter 'Area Median Income'.",
               "Assigning option 'Hour22' for parameter 'Bathroom Spot Vent Hour'.",
               "Assigning option 'None' for parameter 'Battery'.",
               "Assigning option '3' for parameter 'Bedrooms'.",
               "Assigning option 'Hot-Humid' for parameter 'Building America Climate Zone'.",
               "Assigning option 'None' for parameter 'CEC Climate Zone'.",
               "Assigning option 'Standard Efficiency' for parameter 'Ceiling Fan'.",
               "Assigning option 'East South Central' for parameter 'Census Division'.",
               "Assigning option 'East South Central' for parameter 'Census Division RECS'.",
               "Assigning option 'South' for parameter 'Census Region'.",
               "Assigning option 'In another census Place' for parameter 'City'.",
               "Assigning option 'Electric' for parameter 'Clothes Dryer'.",
               "Assigning option '100% Usage' for parameter 'Clothes Dryer Usage Level'.",
               "Assigning option 'EnergyStar' for parameter 'Clothes Washer'.",
               "Assigning option 'Yes' for parameter 'Clothes Washer Presence'.",
               "Assigning option '100% Usage' for parameter 'Clothes Washer Usage Level'.",
               "Assigning option 'Electric Resistance' for parameter 'Cooking Range'.",
               "Assigning option '100% Usage' for parameter 'Cooking Range Usage Level'.",
               "Assigning option '76F' for parameter 'Cooling Setpoint'.",
               "Assigning option 'No' for parameter 'Cooling Setpoint Has Offset'.",
               "Assigning option '0F' for parameter 'Cooling Setpoint Offset Magnitude'.",
               "Assigning option 'None' for parameter 'Cooling Setpoint Offset Period'.",
               "Assigning option 'Never' for parameter 'Cooling Unavailable Days'.",
               "Assigning option 'Not Applicable' for parameter 'Corridor'.",
               "Assigning option 'AL, Baldwin County' for parameter 'County'.",
               "Assigning option 'Metropolitan' for parameter 'County Metro Status'.",
               "Assigning option 'G0100030, G01002600' for parameter 'County and PUMA'.",
               "Assigning option 'Others' for parameter 'Custom State'.",
               "Assigning option 'None' for parameter 'Dehumidifier'.",
               "Assigning option '318 Rated kWh' for parameter 'Dishwasher'.",
               "Assigning option '100% Usage' for parameter 'Dishwasher Usage Level'.",
               "Assigning option '20 ft^2' for parameter 'Door Area'.",
               "Assigning option 'Fiberglass' for parameter 'Doors'.",
               "Assigning option '30% Leakage to Outside, R-8' for parameter 'Duct Leakage and Insulation'.",
               "Assigning option 'Attic' for parameter 'Duct Location'.",
               "Assigning option '2 ft' for parameter 'Eaves'.",
               "Assigning option 'None' for parameter 'Electric Vehicle'.",
               "Assigning option 'Southern' for parameter 'Energystar Climate Zone 2023'.",
               "Assigning option '400%+' for parameter 'Federal Poverty Level'.",
               "Assigning option 'SRSOc' for parameter 'Generation And Emissions Assessment Region'.",
               "Assigning option 'Vented Attic' for parameter 'Geometry Attic Type'.",
               "Assigning option 'None' for parameter 'Geometry Building Horizontal Location MF'.",
               "Assigning option 'None' for parameter 'Geometry Building Horizontal Location SFA'.",
               "Assigning option 'None' for parameter 'Geometry Building Level MF'.",
               "Assigning option 'None' for parameter 'Geometry Building Number Units MF'.",
               "Assigning option 'None' for parameter 'Geometry Building Number Units SFA'.",
               "Assigning option 'Single-Family Detached' for parameter 'Geometry Building Type ACS'.",
               "Assigning option 'Single-Family Detached' for parameter 'Geometry Building Type Height'.",
               "Assigning option 'Single-Family Detached' for parameter 'Geometry Building Type RECS'.",
               "Assigning option '2000-2499' for parameter 'Geometry Floor Area'.",
               "Assigning option '1500-2499' for parameter 'Geometry Floor Area Bin'.",
               "Assigning option 'Slab' for parameter 'Geometry Foundation Type'.",
               "Assigning option '2 Car' for parameter 'Geometry Garage'.",
               "Assigning option 'Single-Family Detached, Slab, Vented Attic, 2 Car Garage' for parameter 'Geometry Space Combination'.",
               "Assigning option '2' for parameter 'Geometry Stories'.",
               "Assigning option '2' for parameter 'Geometry Stories Low Rise'.",
               "Assigning option '<8' for parameter 'Geometry Story Bin'.",
               "Assigning option 'Brick, Medium/Dark' for parameter 'Geometry Wall Exterior Finish'.",
               "Assigning option 'Wood Frame' for parameter 'Geometry Wall Type'.",
               "Assigning option '1.1' for parameter 'Ground Thermal Conductivity'.",
               "Assigning option 'None' for parameter 'HVAC Cooling Autosizing Factor'.",
               "Assigning option 'Ducted Heat Pump' for parameter 'HVAC Cooling Efficiency'.",
               "Assigning option '100% Conditioned' for parameter 'HVAC Cooling Partial Space Conditioning'.",
               "Assigning option 'Ducted Heat Pump' for parameter 'HVAC Cooling Type'.",
               "Assigning option 'Yes' for parameter 'HVAC Has Ducts'.",
               "Assigning option 'None' for parameter 'HVAC Has Shared System'.",
               "Assigning option 'No' for parameter 'HVAC Has Zonal Electric Heating'.",
               "Assigning option 'None' for parameter 'HVAC Heating Autosizing Factor'.",
               "Assigning option 'ASHP, SEER 15, 8.5 HSPF' for parameter 'HVAC Heating Efficiency'.",
               "Assigning option 'Ducted Heat Pump' for parameter 'HVAC Heating Type'.",
               "Assigning option 'Electricity ASHP' for parameter 'HVAC Heating Type And Fuel'.",
               "Assigning option 'None' for parameter 'HVAC Secondary Heating Efficiency'.",
               "Assigning option 'None' for parameter 'HVAC Secondary Heating Fuel'.",
               "Assigning option '0%' for parameter 'HVAC Secondary Heating Partial Space Conditioning'.",
               "Assigning option 'None' for parameter 'HVAC Secondary Heating Type'.",
               "Assigning option 'None' for parameter 'HVAC Shared Efficiencies'.",
               "Assigning option 'No' for parameter 'HVAC System Is Faulted'.",
               "Assigning option 'No' for parameter 'HVAC System Is Scaled'.",
               "Assigning option 'None' for parameter 'HVAC System Single Speed AC Airflow'.",
               "Assigning option 'None' for parameter 'HVAC System Single Speed AC Charge'.",
               "Assigning option 'None' for parameter 'HVAC System Single Speed ASHP Airflow'.",
               "Assigning option 'None' for parameter 'HVAC System Single Speed ASHP Charge'.",
               "Assigning option 'No' for parameter 'Has PV'.",
               "Assigning option 'Electricity' for parameter 'Heating Fuel'.",
               "Assigning option '70F' for parameter 'Heating Setpoint'.",
               "Assigning option 'No' for parameter 'Heating Setpoint Has Offset'.",
               "Assigning option '0F' for parameter 'Heating Setpoint Offset Magnitude'.",
               "Assigning option 'None' for parameter 'Heating Setpoint Offset Period'.",
               "Assigning option 'Never' for parameter 'Heating Unavailable Days'.",
               "Assigning option 'No Exterior Use' for parameter 'Holiday Lighting'.",
               "Assigning option 'Uninsulated' for parameter 'Hot Water Distribution'.",
               "Assigning option '100% Usage' for parameter 'Hot Water Fixtures'.",
               "Assigning option 'No' for parameter 'Household Has Tribal Persons'.",
               "Assigning option 'None' for parameter 'ISO RTO Region'.",
               "Assigning option '80000-99999' for parameter 'Income'.",
               "Assigning option '80000-99999' for parameter 'Income RECS2015'.",
               "Assigning option '60000-99999' for parameter 'Income RECS2020'.",
               "Assigning option '15 ACH50' for parameter 'Infiltration'.",
               "Assigning option 'R-30' for parameter 'Insulation Ceiling'.",
               "Assigning option 'None' for parameter 'Insulation Floor'.",
               "Assigning option 'None' for parameter 'Insulation Foundation Wall'.",
               "Assigning option 'None' for parameter 'Insulation Rim Joist'.",
               "Assigning option 'Unfinished, Uninsulated' for parameter 'Insulation Roof'.",
               "Assigning option 'Uninsulated' for parameter 'Insulation Slab'.",
               "Assigning option 'Wood Stud, R-11' for parameter 'Insulation Wall'.",
               "Assigning option 'Summer = 0.7, Winter = 0.85' for parameter 'Interior Shading'.",
               "Assigning option '100% Incandescent' for parameter 'Lighting'.",
               "Assigning option '100% Usage' for parameter 'Lighting Interior Use'.",
               "Assigning option '100% Usage' for parameter 'Lighting Other Use'.",
               "Assigning option 'CR09' for parameter 'Location Region'.",
               "Assigning option 'None' for parameter 'Mechanical Ventilation'.",
               "Assigning option 'Daphne-Fairhope-Foley, AL MSA' for parameter 'Metropolitan and Micropolitan Statistical Area'.",
               "Assigning option 'None' for parameter 'Misc Extra Refrigerator'.",
               "Assigning option 'None' for parameter 'Misc Freezer'.",
               "Assigning option 'None' for parameter 'Misc Gas Fireplace'.",
               "Assigning option 'None' for parameter 'Misc Gas Grill'.",
               "Assigning option 'None' for parameter 'Misc Gas Lighting'.",
               "Assigning option 'None' for parameter 'Misc Hot Tub Spa'.",
               "Assigning option 'None' for parameter 'Misc Pool'.",
               "Assigning option 'None' for parameter 'Misc Pool Heater'.",
               "Assigning option 'None' for parameter 'Misc Pool Pump'.",
               "Assigning option 'None' for parameter 'Misc Well Pump'.",
               "Assigning option 'Cooling Season, 7 days/wk' for parameter 'Natural Ventilation'.",
               "Assigning option 'Left/Right at 15ft' for parameter 'Neighbors'.",
               "Assigning option '2' for parameter 'Occupants'.",
               "Assigning option 'North' for parameter 'Orientation'.",
               "Assigning option 'None' for parameter 'Overhangs'.",
               "Assigning option 'AL, 02600' for parameter 'PUMA'.",
               "Assigning option 'In metro area, not/partially in principal city' for parameter 'PUMA Metro Status'.",
               "Assigning option 'None' for parameter 'PV Orientation'.",
               "Assigning option 'None' for parameter 'PV System Size'.",
               "Assigning option '100%' for parameter 'Plug Load Diversity'.",
               "Assigning option '110%' for parameter 'Plug Loads'.",
               "Assigning option '90' for parameter 'REEDS Balancing Area'.",
               "Assigning option 'No' for parameter 'Radiant Barrier'.",
               "Assigning option 'Hour17' for parameter 'Range Spot Vent Hour'.",
               "Assigning option 'EF 19.9' for parameter 'Refrigerator'.",
               "Assigning option '100% Usage' for parameter 'Refrigerator Usage Level'.",
               "Assigning option 'Composition Shingles' for parameter 'Roof Material'.",
               "Assigning option 'None' for parameter 'Solar Hot Water'.",
               "Assigning option 'AL' for parameter 'State'.",
               "Assigning option '120-150%' for parameter 'State Metro Median Income'.",
               "Assigning option 'Owner' for parameter 'Tenure'.",
               "Assigning option 'Medium' for parameter 'Usage Level'.",
               "Assigning option 'Occupied' for parameter 'Vacancy Status'.",
               "Assigning option '2000s' for parameter 'Vintage'.",
               "Assigning option '2000-09' for parameter 'Vintage ACS'.",
               "Assigning option 'Electric Standard' for parameter 'Water Heater Efficiency'.",
               "Assigning option 'Electricity' for parameter 'Water Heater Fuel'.",
               "Assigning option 'Yes' for parameter 'Water Heater In Unit'.",
               "Assigning option 'Garage' for parameter 'Water Heater Location'.",
               "Assigning option 'F12 B12 L12 R12' for parameter 'Window Areas'.",
               "Assigning option 'Double, Clear, Metal, Air' for parameter 'Windows'.",
               "Calling ResStockArguments measure with arguments:\nsite_iecc_zone -> 2A \nsite_type -> auto \nbathroom_fans_quantity -> auto \nbathroom_fans_start_hour -> 22 \nbathroom_fans_flow_rate -> auto \nbathroom_fans_hours_in_operation -> auto \nbathroom_fans_power -> auto \nbattery_present -> false \nbattery_location -> auto \nbattery_power -> auto \nbattery_capacity -> auto \nbattery_usable_capacity -> auto \nbattery_round_trip_efficiency -> auto \ngeometry_unit_num_bedrooms -> 3 \ngeometry_unit_num_bathrooms -> auto \nceiling_fan_present -> true \nceiling_fan_label_energy_use -> auto \nceiling_fan_efficiency -> 70.4 \nceiling_fan_quantity -> 1 \nceiling_fan_cooling_setpoint_temp_offset -> 0 \nsite_city -> auto \nclothes_dryer_present -> true \nclothes_dryer_location -> auto \nclothes_dryer_fuel_type -> electricity \nclothes_dryer_efficiency_type -> CombinedEnergyFactor \nclothes_dryer_efficiency -> 2.70 \nclothes_dryer_vented_flow_rate -> auto \nclothes_dryer_usage_multiplier -> 1.0 \nclothes_washer_location -> auto \nclothes_washer_efficiency_type -> IntegratedModifiedEnergyFactor \nclothes_washer_efficiency -> 2.07 \nclothes_washer_rated_annual_kwh -> 123 \nclothes_washer_label_electric_rate -> 0.1065 \nclothes_washer_label_gas_rate -> 1.218 \nclothes_washer_label_annual_gas_cost -> 9 \nclothes_washer_label_usage -> 7.538462 \nclothes_washer_capacity -> 3.68 \nclothes_washer_present -> true \nclothes_washer_usage_multiplier -> 1.0 \ncooking_range_oven_present -> true \ncooking_range_oven_location -> auto \ncooking_range_oven_fuel_type -> electricity \ncooking_range_oven_is_induction -> false \ncooking_range_oven_is_convection -> auto \ncooking_range_oven_usage_multiplier -> 1.0 \nhvac_control_cooling_weekday_setpoint_temp -> 76 \nhvac_control_cooling_weekend_setpoint_temp -> 76 \nuse_auto_cooling_season -> false \nhvac_control_cooling_season_period -> auto \nhvac_control_cooling_weekday_setpoint_offset_magnitude -> 0 \nhvac_control_cooling_weekend_setpoint_offset_magnitude -> 0 \nhvac_control_cooling_weekday_setpoint_schedule -> 0, 0, 0, 0, 0, 0, 0, 0, 0, 0, 0, 0, 0, 0, 0, 0, 0, 0, 0, 0, 0, 0, 0, 0 \nhvac_control_cooling_weekend_setpoint_schedule -> 0, 0, 0, 0, 0, 0, 0, 0, 0, 0, 0, 0, 0, 0, 0, 0, 0, 0, 0, 0, 0, 0, 0, 0 \nschedules_space_cooling_unavailable_days -> 0 \ngeometry_corridor_position -> None \ngeometry_corridor_width -> 0 \nsimulation_control_daylight_saving_enabled -> true \nweather_station_epw_filepath -> ../../../weather/G0100030.epw \nsite_zip_code -> 36535 \nsite_time_zone_utc_offset -> -6 \ndehumidifier_type -> none \ndehumidifier_efficiency_type -> EnergyFactor \ndehumidifier_efficiency -> 0 \ndehumidifier_capacity -> 40 \ndehumidifier_rh_setpoint -> 0.5 \ndehumidifier_fraction_dehumidification_load_served -> 1 \ndishwasher_present -> true \ndishwasher_location -> auto \ndishwasher_efficiency_type -> RatedAnnualkWh \ndishwasher_efficiency -> 318 \ndishwasher_label_electric_rate -> 0.12 \ndishwasher_label_gas_rate -> 1.09 \ndishwasher_label_annual_gas_cost -> 25 \ndishwasher_label_usage -> 4 \ndishwasher_place_setting_capacity -> 12 \ndishwasher_usage_multiplier -> 1.0 \ndoor_area -> 20 \ndoor_rvalue -> 5 \nducts_leakage_units -> Percent \nducts_supply_leakage_to_outside_value -> 0.200 \nducts_return_leakage_to_outside_value -> 0.100 \nducts_supply_insulation_r -> 8 \nducts_return_insulation_r -> 8 \nducts_supply_buried_insulation_level -> auto \nducts_return_buried_insulation_level -> auto \nducts_supply_fraction_rectangular -> auto \nducts_return_fraction_rectangular -> auto \nducts_supply_location -> attic \nducts_supply_surface_area -> auto \nducts_supply_surface_area_fraction -> auto \nducts_return_location -> attic \nducts_return_surface_area -> auto \nducts_return_surface_area_fraction -> auto \nducts_number_of_return_registers -> auto \ngeometry_eaves_depth -> 2 \nmisc_plug_loads_vehicle_present -> false \nmisc_plug_loads_vehicle_annual_kwh -> 0 \nmisc_plug_loads_vehicle_usage_multiplier -> 0 \nmisc_plug_loads_vehicle_2_usage_multiplier -> 0 \ngeometry_attic_type -> VentedAttic \ngeometry_roof_type -> gable \ngeometry_roof_pitch -> 6:12 \ngeometry_unit_type -> single-family detached \ngeometry_average_ceiling_height -> 8 \ngeometry_unit_aspect_ratio -> 1.8 \ngeometry_unit_height_above_grade -> auto \ngeometry_unit_cfa_bin -> 2000-2499 \ngeometry_unit_cfa -> auto \ngeometry_garage_protrusion -> 0.5 \ngeometry_foundation_type -> SlabOnGrade \ngeometry_foundation_height -> 0 \ngeometry_foundation_height_above_grade -> 0 \ngeometry_rim_joist_height -> 0 \ngeometry_garage_width -> 24 \ngeometry_garage_depth -> 24 \ngeometry_garage_position -> Right \ngeometry_num_floors_above_grade -> 2 \nwall_siding_type -> brick veneer \nwall_color -> medium dark \nexterior_finish_r -> 0.7 \nsite_ground_conductivity -> 1.1 \nsite_ground_diffusivity -> auto \nsite_soil_and_moisture_type -> auto \ncooling_system_type -> none \ncooling_system_cooling_efficiency_type -> SEER \ncooling_system_cooling_efficiency -> 0 \ncooling_system_cooling_capacity -> auto \ncooling_system_cooling_autosizing_limit -> auto \ncooling_system_is_ducted -> false \ncooling_system_cooling_compressor_type -> auto \ncooling_system_cooling_sensible_heat_fraction -> auto \ncooling_system_crankcase_heater_watts -> auto \ncooling_system_integrated_heating_system_capacity -> auto \ncooling_system_integrated_heating_system_efficiency_percent -> auto \ncooling_system_integrated_heating_system_fraction_heat_load_served -> auto \ncooling_system_integrated_heating_system_fuel -> auto \ncooling_system_fraction_cool_load_served -> 1 \nhvac_blower_fan_watts_per_cfm -> auto \nheating_system_type -> none \nheating_system_heating_efficiency -> 0 \nheating_system_heating_capacity -> auto \nheating_system_heating_autosizing_limit -> auto \nheating_system_fraction_heat_load_served -> 1 \nheating_system_has_flue_or_chimney -> auto \nheat_pump_type -> air-to-air \nheat_pump_heating_efficiency_type -> HSPF \nheat_pump_heating_efficiency -> 8.5 \nheat_pump_cooling_efficiency_type -> SEER \nheat_pump_cooling_efficiency -> 15 \nheat_pump_sizing_methodology -> ACCA \nheat_pump_backup_sizing_methodology -> auto \nheat_pump_heating_capacity -> auto \nheat_pump_heating_autosizing_limit -> auto \nheat_pump_fraction_heat_load_served -> 1 \nheat_pump_cooling_capacity -> auto \nheat_pump_cooling_autosizing_limit -> auto \nheat_pump_fraction_cool_load_served -> 1 \nheat_pump_backup_type -> integrated \nheat_pump_backup_fuel -> electricity \nheat_pump_backup_heating_efficiency -> 1 \nheat_pump_backup_heating_capacity -> auto \nheat_pump_backup_heating_autosizing_limit -> auto \nheat_pump_heating_capacity_retention_fraction -> auto \nheat_pump_heating_capacity_retention_temp -> auto \nheat_pump_backup_heating_lockout_temp -> auto \nheat_pump_compressor_lockout_temp -> auto \nheat_pump_cooling_compressor_type -> auto \nheat_pump_cooling_sensible_heat_fraction -> auto \nheat_pump_crankcase_heater_watts -> auto \ngeothermal_loop_configuration -> none \ngeothermal_loop_borefield_configuration -> auto \ngeothermal_loop_loop_flow -> auto \ngeothermal_loop_boreholes_count -> auto \ngeothermal_loop_boreholes_length -> auto \ngeothermal_loop_boreholes_spacing -> auto \ngeothermal_loop_boreholes_diameter -> auto \ngeothermal_loop_grout_type -> auto \ngeothermal_loop_pipe_type -> auto \ngeothermal_loop_pipe_diameter -> auto \nheating_system_2_type -> none \nheating_system_2_heating_efficiency -> 0 \nheating_system_2_heating_capacity -> auto \nheating_system_2_heating_autosizing_limit -> auto \nheating_system_2_has_flue_or_chimney -> auto \nheating_system_2_fuel -> electricity \nheating_system_2_fraction_heat_load_served -> 0 \nheating_system_fuel -> electricity \nhvac_control_heating_weekday_setpoint_temp -> 70 \nhvac_control_heating_weekend_setpoint_temp -> 70 \nuse_auto_heating_season -> false \nhvac_control_heating_season_period -> auto \nhvac_control_heating_weekday_setpoint_offset_magnitude -> 0 \nhvac_control_heating_weekend_setpoint_offset_magnitude -> 0 \nhvac_control_heating_weekday_setpoint_schedule -> 0, 0, 0, 0, 0, 0, 0, 0, 0, 0, 0, 0, 0, 0, 0, 0, 0, 0, 0, 0, 0, 0, 0, 0 \nhvac_control_heating_weekend_setpoint_schedule -> 0, 0, 0, 0, 0, 0, 0, 0, 0, 0, 0, 0, 0, 0, 0, 0, 0, 0, 0, 0, 0, 0, 0, 0 \nschedules_space_heating_unavailable_days -> 0 \nholiday_lighting_present -> false \nholiday_lighting_daily_kwh -> 0 \nholiday_lighting_period -> auto \nhot_water_distribution_system_type -> Standard \nhot_water_distribution_standard_piping_length -> auto \nhot_water_distribution_recirc_control_type -> no control \nhot_water_distribution_recirc_piping_length -> 0 \nhot_water_distribution_recirc_branch_piping_length -> 0 \nhot_water_distribution_recirc_pump_power -> 0 \nhot_water_distribution_pipe_r -> 0 \ndwhr_facilities_connected -> none \ndwhr_equal_flow -> true \ndwhr_efficiency -> 0.0 \nwater_fixtures_shower_low_flow -> false \nwater_fixtures_sink_low_flow -> false \nwater_fixtures_usage_multiplier -> 1.0 \nair_leakage_leakiness_description -> auto \nair_leakage_units -> ACH \nair_leakage_house_pressure -> 50 \nair_leakage_value -> 15 \nair_leakage_type -> unit total \nsite_shielding_of_home -> normal \nceiling_assembly_r -> 31.6 \nceiling_insulation_r -> 30 \nfloor_type -> WoodFrame \nfloor_over_foundation_assembly_r -> 0 \nfloor_over_garage_assembly_r -> 5.3 \nfoundation_wall_type -> solid concrete \nfoundation_wall_thickness -> auto \nfoundation_wall_insulation_r -> 0 \nfoundation_wall_insulation_location -> exterior \nfoundation_wall_insulation_distance_to_top -> 0 \nfoundation_wall_insulation_distance_to_bottom -> 0 \nfoundation_wall_assembly_r -> auto \nrim_joist_continuous_exterior_r -> 0 \nrim_joist_continuous_interior_r -> 0 \nrim_joist_assembly_interior_r -> 0 \nrim_joist_assembly_r -> auto \nroof_assembly_r -> 2.3 \nslab_perimeter_insulation_r -> 0 \nslab_perimeter_insulation_depth -> 0 \nslab_exterior_horizontal_insulation_r -> 0 \nslab_exterior_horizontal_insulation_width -> 0 \nslab_exterior_horizontal_insulation_depth_below_grade -> 0 \nslab_under_insulation_r -> 0 \nslab_under_insulation_width -> 0 \nslab_thickness -> auto \nslab_carpet_fraction -> auto \nslab_carpet_r -> auto \nwall_type -> WoodStud \nwall_assembly_r -> 10.3 \nwindow_interior_shading_type -> auto \nwindow_interior_shading_summer -> 0.7 \nwindow_interior_shading_winter -> 0.85 \nlighting_present -> true \nlighting_interior_fraction_cfl -> 0 \nlighting_interior_fraction_lfl -> 0 \nlighting_interior_fraction_led -> 0 \nlighting_exterior_fraction_cfl -> 0 \nlighting_exterior_fraction_lfl -> 0 \nlighting_exterior_fraction_led -> 0 \nlighting_garage_fraction_cfl -> 0 \nlighting_garage_fraction_lfl -> 0 \nlighting_garage_fraction_led -> 0 \nlighting_interior_usage_multiplier -> 1.0 \nlighting_exterior_usage_multiplier -> 1.0 \nlighting_garage_usage_multiplier -> 1.0 \nmech_vent_fan_type -> none \nmech_vent_flow_rate -> 0 \nmech_vent_hours_in_operation -> 0 \nmech_vent_recovery_efficiency_type -> Unadjusted \nmech_vent_total_recovery_efficiency -> 0 \nmech_vent_sensible_recovery_efficiency -> 0 \nmech_vent_fan_power -> 0 \nmech_vent_num_units_served -> 0 \nmech_vent_2_fan_type -> none \nmech_vent_2_flow_rate -> 0 \nmech_vent_2_hours_in_operation -> 0 \nmech_vent_2_recovery_efficiency_type -> Unadjusted \nmech_vent_2_total_recovery_efficiency -> 0 \nmech_vent_2_sensible_recovery_efficiency -> 0 \nmech_vent_2_fan_power -> 0 \nwhole_house_fan_present -> false \nwhole_house_fan_flow_rate -> 0 \nwhole_house_fan_power -> 0 \nmech_vent_shared_frac_recirculation -> auto \nmech_vent_shared_precooling_efficiency -> auto \nmech_vent_shared_precooling_fraction_cool_load_served -> auto \nmech_vent_shared_precooling_fuel -> auto \nmech_vent_shared_preheating_efficiency -> auto \nmech_vent_shared_preheating_fraction_heat_load_served -> auto \nmech_vent_shared_preheating_fuel -> auto \nextra_refrigerator_present -> false \nextra_refrigerator_location -> auto \nextra_refrigerator_rated_annual_kwh -> 0 \nextra_refrigerator_usage_multiplier -> 0 \nfreezer_present -> false \nfreezer_location -> auto \nfreezer_rated_annual_kwh -> 0 \nfreezer_usage_multiplier -> 0 \nmisc_fuel_loads_fireplace_present -> false \nmisc_fuel_loads_fireplace_fuel_type -> natural gas \nmisc_fuel_loads_fireplace_annual_therm -> 0 \nmisc_fuel_loads_fireplace_frac_sensible -> auto \nmisc_fuel_loads_fireplace_frac_latent -> auto \nmisc_fuel_loads_fireplace_usage_multiplier -> 0 \nmisc_fuel_loads_grill_present -> false \nmisc_fuel_loads_grill_fuel_type -> natural gas \nmisc_fuel_loads_grill_annual_therm -> 0 \nmisc_fuel_loads_grill_usage_multiplier -> 0 \nmisc_fuel_loads_lighting_present -> false \nmisc_fuel_loads_lighting_fuel_type -> natural gas \nmisc_fuel_loads_lighting_annual_therm -> 0 \nmisc_fuel_loads_lighting_usage_multiplier -> 0 \npermanent_spa_present -> false \npermanent_spa_pump_annual_kwh -> 0 \npermanent_spa_pump_usage_multiplier -> 0 \npermanent_spa_heater_type -> none \npermanent_spa_heater_annual_kwh -> 0 \npermanent_spa_heater_annual_therm -> 0 \npermanent_spa_heater_usage_multiplier -> 0 \npool_present -> false \npool_heater_type -> none \npool_heater_annual_kwh -> 0 \npool_heater_annual_therm -> 0 \npool_heater_usage_multiplier -> 0 \npool_pump_annual_kwh -> 0 \npool_pump_usage_multiplier -> 0 \nmisc_plug_loads_well_pump_present -> false \nmisc_plug_loads_well_pump_annual_kwh -> 0 \nmisc_plug_loads_well_pump_usage_multiplier -> 0 \nmisc_plug_loads_well_pump_2_usage_multiplier -> 0 \nwindow_fraction_operable -> 0.67 \nneighbor_front_distance -> 0 \nneighbor_back_distance -> 0 \nneighbor_left_distance -> 15 \nneighbor_right_distance -> 15 \nneighbor_front_height -> auto \nneighbor_back_height -> auto \nneighbor_left_height -> auto \nneighbor_right_height -> auto \ngeometry_unit_num_occupants -> 2 \ngeneral_water_use_usage_multiplier -> auto \ngeometry_unit_orientation -> 0 \noverhangs_front_depth -> 0 \noverhangs_front_distance_to_top_of_window -> 0 \noverhangs_front_distance_to_bottom_of_window -> 4 \noverhangs_back_depth -> 0 \noverhangs_back_distance_to_top_of_window -> 0 \noverhangs_back_distance_to_bottom_of_window -> 4 \noverhangs_left_depth -> 0 \noverhangs_left_distance_to_top_of_window -> 0 \noverhangs_left_distance_to_bottom_of_window -> 4 \noverhangs_right_depth -> 0 \noverhangs_right_distance_to_top_of_window -> 0 \noverhangs_right_distance_to_bottom_of_window -> 4 \nsite_elevation -> auto \nsite_latitude -> auto \nsite_longitude -> auto \npv_system_array_azimuth -> 180 \npv_system_2_array_azimuth -> 0 \npv_system_present -> false \npv_system_module_type -> auto \npv_system_max_power_output -> 0 \npv_system_location -> roof \npv_system_tracking -> auto \npv_system_array_tilt -> roofpitch \npv_system_inverter_efficiency -> auto \npv_system_system_losses_fraction -> auto \npv_system_2_present -> false \npv_system_2_module_type -> auto \npv_system_2_max_power_output -> 0 \npv_system_2_location -> auto \npv_system_2_tracking -> auto \npv_system_2_array_tilt -> roofpitch \nmisc_plug_loads_other_2_usage_multiplier -> 1.0 \nmisc_plug_loads_television_2_usage_multiplier -> 1.0 \nmisc_plug_loads_other_annual_kwh -> auto \nmisc_plug_loads_other_frac_sensible -> 0.93 \nmisc_plug_loads_other_frac_latent -> 0.021 \nmisc_plug_loads_other_usage_multiplier -> 1.1 \nmisc_plug_loads_television_present -> true \nmisc_plug_loads_television_annual_kwh -> auto \nmisc_plug_loads_television_usage_multiplier -> 1.1 \nradiant_barrier_attic_location -> none \nradiant_barrier_grade -> 1 \nkitchen_fans_quantity -> auto \nkitchen_fans_start_hour -> 17 \nkitchen_fans_flow_rate -> auto \nkitchen_fans_hours_in_operation -> auto \nkitchen_fans_power -> auto \nrefrigerator_present -> true \nrefrigerator_location -> auto \nrefrigerator_rated_annual_kwh -> 383 \nrefrigerator_usage_multiplier -> 1.0 \nroof_material_type -> asphalt or fiberglass shingles \nroof_color -> medium \nsolar_thermal_system_type -> none \nsolar_thermal_collector_area -> 40 \nsolar_thermal_collector_loop_type -> liquid indirect \nsolar_thermal_collector_type -> single glazing black \nsolar_thermal_collector_azimuth -> 180 \nsolar_thermal_collector_tilt -> roofpitch \nsolar_thermal_collector_rated_optical_efficiency -> 0.77 \nsolar_thermal_collector_rated_thermal_losses -> 0.793 \nsolar_thermal_storage_volume -> auto \nsolar_thermal_solar_fraction -> 0 \nsite_state_code -> AL \nvintage -> 2000s \nyear_built -> auto \nwater_heater_type -> storage water heater \nwater_heater_fuel_type -> electricity \nwater_heater_tank_volume -> auto \nwater_heater_efficiency_type -> EnergyFactor \nwater_heater_efficiency -> 0.92 \nwater_heater_recovery_efficiency -> 0 \nwater_heater_standby_loss -> 0 \nwater_heater_jacket_rvalue -> 0 \nwater_heater_setpoint_temperature -> 125 \nwater_heater_heating_capacity -> auto \nwater_heater_has_flue_or_chimney -> auto \nwater_heater_num_bedrooms_served -> auto \nwater_heater_operating_mode -> auto \nwater_heater_tank_model_type -> auto \nwater_heater_usage_bin -> auto \nwater_heater_uses_desuperheater -> auto \nwater_heater_location -> garage \nwindow_front_wwr -> 0.12 \nwindow_back_wwr -> 0.12 \nwindow_left_wwr -> 0.12 \nwindow_right_wwr -> 0.12 \nwindow_area_front -> 0 \nwindow_area_back -> 0 \nwindow_area_left -> 0 \nwindow_area_right -> 0 \nwindow_aspect_ratio -> 1.333 \nskylight_area_front -> 0 \nskylight_area_back -> 0 \nskylight_area_left -> 0 \nskylight_area_right -> 0 \nwindow_ufactor -> 0.76 \nwindow_shgc -> 0.67 \nskylight_ufactor -> 0.37 \nskylight_shgc -> 0.3 \nskylight_storm_type -> auto \nwindow_exterior_shading_type -> auto \nwindow_exterior_shading_summer -> auto \nwindow_exterior_shading_winter -> auto \nwindow_natvent_availability -> auto \nwindow_shading_summer_season -> auto \nwindow_insect_screens -> auto \nbuilding_id -> 1"
            ],
            "step_result" : "Success",
            "step_values" : 
            [
               {
                  "name" : "buildstock_csv_path",
                  "value" : "buildstock.csv"
               },
               {
                  "name" : "building_id",
                  "value" : 1
               },
               {
                  "name" : "sample_weight",
                  "value" : 34911755.0
               },
               {
                  "name" : "simulation_control_timestep",
                  "value" : 60
               },
               {
                  "name" : "simulation_control_run_period_begin_month",
                  "value" : 1
               },
               {
                  "name" : "simulation_control_run_period_begin_day_of_month",
                  "value" : 1
               },
               {
                  "name" : "simulation_control_run_period_end_month",
                  "value" : 12
               },
               {
                  "name" : "simulation_control_run_period_end_day_of_month",
                  "value" : 31
               },
               {
                  "name" : "simulation_control_run_period_calendar_year",
                  "value" : 2007
               },
               {
                  "name" : "emissions_scenario_names",
                  "value" : "LRMER_MidCase_15"
               },
               {
                  "name" : "emissions_types",
                  "value" : "CO2e"
               },
               {
                  "name" : "emissions_electricity_folders",
                  "value" : "data/emissions/cambium/2022/LRMER_MidCase_15"
               },
               {
                  "name" : "emissions_natural_gas_values",
                  "value" : ""
               },
               {
                  "name" : "emissions_propane_values",
                  "value" : ""
               },
               {
                  "name" : "emissions_fuel_oil_values",
                  "value" : ""
               },
               {
                  "name" : "emissions_wood_values",
                  "value" : ""
               },
               {
                  "name" : "utility_bill_scenario_names",
                  "value" : "Bills"
               },
               {
                  "name" : "utility_bill_simple_filepaths",
                  "value" : ""
               },
               {
                  "name" : "utility_bill_detailed_filepaths",
                  "value" : ""
               },
               {
                  "name" : "ahs_region",
                  "value" : "Non-CBSA East South Central"
               },
               {
                  "name" : "aiannh_area",
                  "value" : "No"
               },
               {
                  "name" : "ashrae_iecc_climate_zone_2004",
                  "value" : "2A"
               },
               {
                  "name" : "ashrae_iecc_climate_zone_2004_2_a_split",
                  "value" : "2A - FL, GA, AL, MS"
               },
               {
                  "name" : "area_median_income",
                  "value" : "120-150%"
               },
               {
                  "name" : "bathroom_spot_vent_hour",
                  "value" : "Hour22"
               },
               {
                  "name" : "battery",
                  "value" : "None"
               },
               {
                  "name" : "bedrooms",
                  "value" : "3"
               },
               {
                  "name" : "building_america_climate_zone",
                  "value" : "Hot-Humid"
               },
               {
                  "name" : "cec_climate_zone",
                  "value" : "None"
               },
               {
                  "name" : "ceiling_fan",
                  "value" : "Standard Efficiency"
               },
               {
                  "name" : "census_division",
                  "value" : "East South Central"
               },
               {
                  "name" : "census_division_recs",
                  "value" : "East South Central"
               },
               {
                  "name" : "census_region",
                  "value" : "South"
               },
               {
                  "name" : "city",
                  "value" : "In another census Place"
               },
               {
                  "name" : "clothes_dryer",
                  "value" : "Electric"
               },
               {
                  "name" : "clothes_dryer_usage_level",
                  "value" : "100% Usage"
               },
               {
                  "name" : "clothes_washer",
                  "value" : "EnergyStar"
               },
               {
                  "name" : "clothes_washer_presence",
                  "value" : "Yes"
               },
               {
                  "name" : "clothes_washer_usage_level",
                  "value" : "100% Usage"
               },
               {
                  "name" : "cooking_range",
                  "value" : "Electric Resistance"
               },
               {
                  "name" : "cooking_range_usage_level",
                  "value" : "100% Usage"
               },
               {
                  "name" : "cooling_setpoint",
                  "value" : "76F"
               },
               {
                  "name" : "cooling_setpoint_has_offset",
                  "value" : "No"
               },
               {
                  "name" : "cooling_setpoint_offset_magnitude",
                  "value" : "0F"
               },
               {
                  "name" : "cooling_setpoint_offset_period",
                  "value" : "None"
               },
               {
                  "name" : "cooling_unavailable_days",
                  "value" : "Never"
               },
               {
                  "name" : "corridor",
                  "value" : "Not Applicable"
               },
               {
                  "name" : "county",
                  "value" : "AL, Baldwin County"
               },
               {
                  "name" : "county_metro_status",
                  "value" : "Metropolitan"
               },
               {
                  "name" : "county_and_puma",
                  "value" : "G0100030, G01002600"
               },
               {
                  "name" : "custom_state",
                  "value" : "Others"
               },
               {
                  "name" : "dehumidifier",
                  "value" : "None"
               },
               {
                  "name" : "dishwasher",
                  "value" : "318 Rated kWh"
               },
               {
                  "name" : "dishwasher_usage_level",
                  "value" : "100% Usage"
               },
               {
                  "name" : "door_area",
                  "value" : "20 ft^2"
               },
               {
                  "name" : "doors",
                  "value" : "Fiberglass"
               },
               {
                  "name" : "duct_leakage_and_insulation",
                  "value" : "30% Leakage to Outside, R-8"
               },
               {
                  "name" : "duct_location",
                  "value" : "Attic"
               },
               {
                  "name" : "eaves",
                  "value" : "2 ft"
               },
               {
                  "name" : "electric_vehicle",
                  "value" : "None"
               },
               {
                  "name" : "energystar_climate_zone_2023",
                  "value" : "Southern"
               },
               {
                  "name" : "federal_poverty_level",
                  "value" : "400%+"
               },
               {
                  "name" : "generation_and_emissions_assessment_region",
                  "value" : "SRSOc"
               },
               {
                  "name" : "geometry_attic_type",
                  "value" : "Vented Attic"
               },
               {
                  "name" : "geometry_building_horizontal_location_mf",
                  "value" : "None"
               },
               {
                  "name" : "geometry_building_horizontal_location_sfa",
                  "value" : "None"
               },
               {
                  "name" : "geometry_building_level_mf",
                  "value" : "None"
               },
               {
                  "name" : "geometry_building_number_units_mf",
                  "value" : "None"
               },
               {
                  "name" : "geometry_building_number_units_sfa",
                  "value" : "None"
               },
               {
                  "name" : "geometry_building_type_acs",
                  "value" : "Single-Family Detached"
               },
               {
                  "name" : "geometry_building_type_height",
                  "value" : "Single-Family Detached"
               },
               {
                  "name" : "geometry_building_type_recs",
                  "value" : "Single-Family Detached"
               },
               {
                  "name" : "geometry_floor_area",
                  "value" : "2000-2499"
               },
               {
                  "name" : "geometry_floor_area_bin",
                  "value" : "1500-2499"
               },
               {
                  "name" : "geometry_foundation_type",
                  "value" : "Slab"
               },
               {
                  "name" : "geometry_garage",
                  "value" : "2 Car"
               },
               {
                  "name" : "geometry_space_combination",
                  "value" : "Single-Family Detached, Slab, Vented Attic, 2 Car Garage"
               },
               {
                  "name" : "geometry_stories",
                  "value" : "2"
               },
               {
                  "name" : "geometry_stories_low_rise",
                  "value" : "2"
               },
               {
                  "name" : "geometry_story_bin",
                  "value" : "<8"
               },
               {
                  "name" : "geometry_wall_exterior_finish",
                  "value" : "Brick, Medium/Dark"
               },
               {
                  "name" : "geometry_wall_type",
                  "value" : "Wood Frame"
               },
               {
                  "name" : "ground_thermal_conductivity",
                  "value" : "1.1"
               },
               {
                  "name" : "hvac_cooling_autosizing_factor",
                  "value" : "None"
               },
               {
                  "name" : "hvac_cooling_efficiency",
                  "value" : "Ducted Heat Pump"
               },
               {
                  "name" : "hvac_cooling_partial_space_conditioning",
                  "value" : "100% Conditioned"
               },
               {
                  "name" : "hvac_cooling_type",
                  "value" : "Ducted Heat Pump"
               },
               {
                  "name" : "hvac_has_ducts",
                  "value" : "Yes"
               },
               {
                  "name" : "hvac_has_shared_system",
                  "value" : "None"
               },
               {
                  "name" : "hvac_has_zonal_electric_heating",
                  "value" : "No"
               },
               {
                  "name" : "hvac_heating_autosizing_factor",
                  "value" : "None"
               },
               {
                  "name" : "hvac_heating_efficiency",
                  "value" : "ASHP, SEER 15, 8.5 HSPF"
               },
               {
                  "name" : "hvac_heating_type",
                  "value" : "Ducted Heat Pump"
               },
               {
                  "name" : "hvac_heating_type_and_fuel",
                  "value" : "Electricity ASHP"
               },
               {
                  "name" : "hvac_secondary_heating_efficiency",
                  "value" : "None"
               },
               {
                  "name" : "hvac_secondary_heating_fuel",
                  "value" : "None"
               },
               {
                  "name" : "hvac_secondary_heating_partial_space_conditioning",
                  "value" : "0%"
               },
               {
                  "name" : "hvac_secondary_heating_type",
                  "value" : "None"
               },
               {
                  "name" : "hvac_shared_efficiencies",
                  "value" : "None"
               },
               {
                  "name" : "hvac_system_is_faulted",
                  "value" : "No"
               },
               {
                  "name" : "hvac_system_is_scaled",
                  "value" : "No"
               },
               {
                  "name" : "hvac_system_single_speed_ac_airflow",
                  "value" : "None"
               },
               {
                  "name" : "hvac_system_single_speed_ac_charge",
                  "value" : "None"
               },
               {
                  "name" : "hvac_system_single_speed_ashp_airflow",
                  "value" : "None"
               },
               {
                  "name" : "hvac_system_single_speed_ashp_charge",
                  "value" : "None"
               },
               {
                  "name" : "has_pv",
                  "value" : "No"
               },
               {
                  "name" : "heating_fuel",
                  "value" : "Electricity"
               },
               {
                  "name" : "heating_setpoint",
                  "value" : "70F"
               },
               {
                  "name" : "heating_setpoint_has_offset",
                  "value" : "No"
               },
               {
                  "name" : "heating_setpoint_offset_magnitude",
                  "value" : "0F"
               },
               {
                  "name" : "heating_setpoint_offset_period",
                  "value" : "None"
               },
               {
                  "name" : "heating_unavailable_days",
                  "value" : "Never"
               },
               {
                  "name" : "holiday_lighting",
                  "value" : "No Exterior Use"
               },
               {
                  "name" : "hot_water_distribution",
                  "value" : "Uninsulated"
               },
               {
                  "name" : "hot_water_fixtures",
                  "value" : "100% Usage"
               },
               {
                  "name" : "household_has_tribal_persons",
                  "value" : "No"
               },
               {
                  "name" : "iso_rto_region",
                  "value" : "None"
               },
               {
                  "name" : "income",
                  "value" : "80000-99999"
               },
               {
                  "name" : "income_recs_2015",
                  "value" : "80000-99999"
               },
               {
                  "name" : "income_recs_2020",
                  "value" : "60000-99999"
               },
               {
                  "name" : "infiltration",
                  "value" : "15 ACH50"
               },
               {
                  "name" : "insulation_ceiling",
                  "value" : "R-30"
               },
               {
                  "name" : "insulation_floor",
                  "value" : "None"
               },
               {
                  "name" : "insulation_foundation_wall",
                  "value" : "None"
               },
               {
                  "name" : "insulation_rim_joist",
                  "value" : "None"
               },
               {
                  "name" : "insulation_roof",
                  "value" : "Unfinished, Uninsulated"
               },
               {
                  "name" : "insulation_slab",
                  "value" : "Uninsulated"
               },
               {
                  "name" : "insulation_wall",
                  "value" : "Wood Stud, R-11"
               },
               {
                  "name" : "interior_shading",
                  "value" : "Summer = 0.7, Winter = 0.85"
               },
               {
                  "name" : "lighting",
                  "value" : "100% Incandescent"
               },
               {
                  "name" : "lighting_interior_use",
                  "value" : "100% Usage"
               },
               {
                  "name" : "lighting_other_use",
                  "value" : "100% Usage"
               },
               {
                  "name" : "location_region",
                  "value" : "CR09"
               },
               {
                  "name" : "mechanical_ventilation",
                  "value" : "None"
               },
               {
                  "name" : "metropolitan_and_micropolitan_statistical_area",
                  "value" : "Daphne-Fairhope-Foley, AL MSA"
               },
               {
                  "name" : "misc_extra_refrigerator",
                  "value" : "None"
               },
               {
                  "name" : "misc_freezer",
                  "value" : "None"
               },
               {
                  "name" : "misc_gas_fireplace",
                  "value" : "None"
               },
               {
                  "name" : "misc_gas_grill",
                  "value" : "None"
               },
               {
                  "name" : "misc_gas_lighting",
                  "value" : "None"
               },
               {
                  "name" : "misc_hot_tub_spa",
                  "value" : "None"
               },
               {
                  "name" : "misc_pool",
                  "value" : "None"
               },
               {
                  "name" : "misc_pool_heater",
                  "value" : "None"
               },
               {
                  "name" : "misc_pool_pump",
                  "value" : "None"
               },
               {
                  "name" : "misc_well_pump",
                  "value" : "None"
               },
               {
                  "name" : "natural_ventilation",
                  "value" : "Cooling Season, 7 days/wk"
               },
               {
                  "name" : "neighbors",
                  "value" : "Left/Right at 15ft"
               },
               {
                  "name" : "occupants",
                  "value" : "2"
               },
               {
                  "name" : "orientation",
                  "value" : "North"
               },
               {
                  "name" : "overhangs",
                  "value" : "None"
               },
               {
                  "name" : "puma",
                  "value" : "AL, 02600"
               },
               {
                  "name" : "puma_metro_status",
                  "value" : "In metro area, not/partially in principal city"
               },
               {
                  "name" : "pv_orientation",
                  "value" : "None"
               },
               {
                  "name" : "pv_system_size",
                  "value" : "None"
               },
               {
                  "name" : "plug_load_diversity",
                  "value" : "100%"
               },
               {
                  "name" : "plug_loads",
                  "value" : "110%"
               },
               {
                  "name" : "reeds_balancing_area",
                  "value" : "90"
               },
               {
                  "name" : "radiant_barrier",
                  "value" : "No"
               },
               {
                  "name" : "range_spot_vent_hour",
                  "value" : "Hour17"
               },
               {
                  "name" : "refrigerator",
                  "value" : "EF 19.9"
               },
               {
                  "name" : "refrigerator_usage_level",
                  "value" : "100% Usage"
               },
               {
                  "name" : "roof_material",
                  "value" : "Composition Shingles"
               },
               {
                  "name" : "solar_hot_water",
                  "value" : "None"
               },
               {
                  "name" : "state",
                  "value" : "AL"
               },
               {
                  "name" : "state_metro_median_income",
                  "value" : "120-150%"
               },
               {
                  "name" : "tenure",
                  "value" : "Owner"
               },
               {
                  "name" : "usage_level",
                  "value" : "Medium"
               },
               {
                  "name" : "vacancy_status",
                  "value" : "Occupied"
               },
               {
                  "name" : "vintage",
                  "value" : "2000s"
               },
               {
                  "name" : "vintage_acs",
                  "value" : "2000-09"
               },
               {
                  "name" : "water_heater_efficiency",
                  "value" : "Electric Standard"
               },
               {
                  "name" : "water_heater_fuel",
                  "value" : "Electricity"
               },
               {
                  "name" : "water_heater_in_unit",
                  "value" : "Yes"
               },
               {
                  "name" : "water_heater_location",
                  "value" : "Garage"
               },
               {
                  "name" : "window_areas",
                  "value" : "F12 B12 L12 R12"
               },
               {
                  "name" : "windows",
                  "value" : "Double, Clear, Metal, Air"
               },
               {
                  "name" : "heating_unavailable_period",
                  "value" : "Never"
               },
               {
                  "name" : "cooling_unavailable_period",
                  "value" : "Never"
               },
               {
                  "name" : "emissions_electricity_units",
                  "value" : "kg/MWh"
               },
               {
                  "name" : "emissions_electricity_values_or_filepaths",
                  "value" : "/Users/radhikar/Documents/buildstock2025/resstock2025/lib/resources/data/emissions/cambium/2022/LRMER_MidCase_15/SRSOc.csv"
               },
               {
                  "name" : "emissions_fossil_fuel_units",
                  "value" : "lb/MBtu"
               },
               {
                  "name" : "utility_bill_electricity_filepaths",
                  "value" : ""
               },
               {
                  "name" : "utility_bill_electricity_fixed_charges",
                  "value" : ""
               },
               {
                  "name" : "utility_bill_electricity_marginal_rates",
                  "value" : ""
               },
               {
                  "name" : "utility_bill_natural_gas_fixed_charges",
                  "value" : ""
               },
               {
                  "name" : "utility_bill_natural_gas_marginal_rates",
                  "value" : ""
               },
               {
                  "name" : "utility_bill_propane_fixed_charges",
                  "value" : ""
               },
               {
                  "name" : "utility_bill_propane_marginal_rates",
                  "value" : ""
               },
               {
                  "name" : "utility_bill_fuel_oil_fixed_charges",
                  "value" : ""
               },
               {
                  "name" : "utility_bill_fuel_oil_marginal_rates",
                  "value" : ""
               },
               {
                  "name" : "utility_bill_wood_fixed_charges",
                  "value" : ""
               },
               {
                  "name" : "utility_bill_wood_marginal_rates",
                  "value" : ""
               },
               {
                  "name" : "utility_bill_pv_compensation_types",
                  "value" : ""
               },
               {
                  "name" : "utility_bill_pv_net_metering_annual_excess_sellback_rate_types",
                  "value" : ""
               },
               {
                  "name" : "utility_bill_pv_net_metering_annual_excess_sellback_rates",
                  "value" : ""
               },
               {
                  "name" : "utility_bill_pv_feed_in_tariff_rates",
                  "value" : ""
               },
               {
                  "name" : "utility_bill_pv_monthly_grid_connection_fee_units",
                  "value" : ""
               },
               {
                  "name" : "utility_bill_pv_monthly_grid_connection_fees",
                  "value" : ""
               },
               {
                  "name" : "air_leakage_to_outside_ach_50",
                  "value" : 15.0
               },
               {
                  "name" : "weather_file_city",
                  "value" : "Mobile Downtown AP"
               },
               {
                  "name" : "weather_file_latitude",
                  "value" : 30.632999999999999
               },
               {
                  "name" : "weather_file_longitude",
                  "value" : -88.066999999999993
               }
            ],
            "step_warnings" : []
         }
      },
      {
         "arguments" : 
         {
            "option_1" : "Windows|Triple, Low-E, Non-metal, Air, L-Gain",
            "option_1_cost_1_multiplier" : "Window Area (ft^2)",
            "option_1_cost_1_value" : 45.770000000000003,
            "option_1_lifetime" : 30,
            "run_measure" : 1,
            "upgrade_name" : "Windows"
         },
         "measure_dir_name" : "ApplyUpgrade",
         "result" : 
         {
            "completed_at" : "20241108T185515Z",
            "measure_class_name" : "ApplyUpgrade",
            "measure_display_name" : "Apply Upgrade",
            "measure_name" : "apply_upgrade",
            "measure_taxonomy" : "Whole Building.Space Types",
            "measure_type" : "ModelMeasure",
            "measure_uid" : "33f1654c-f734-43d1-b35d-9d2856e41b5a",
            "measure_version_id" : "e0b6d3af-6941-45e2-8627-9d8f568ebe1a",
            "measure_version_modified" : "20240904T233838Z",
            "measure_xml_checksum" : "9339BE01",
            "started_at" : "20241108T185512Z",
            "stderr" : "",
            "stdout" : "[openstudio.measure.OSRunner] <Error> Cannot find current Workflow Step\n[openstudio.measure.OSRunner] <Error> Cannot find current Workflow Step\n[openstudio.measure.OSRunner] <Error> Cannot find current Workflow Step\n",
            "step_errors" : [],
            "step_files" : [],
            "step_info" : 
            [
               "Assigning option 'Triple, Low-E, Non-metal, Air, L-Gain' for parameter 'Windows'.",
[...]
               },
               {
                  "name" : "hvac_design_load_heating_floors_btu_h",
                  "value" : 3528.0
               },
               {
                  "name" : "hvac_design_load_heating_slabs_btu_h",
                  "value" : 5521.0
               },
               {
                  "name" : "hvac_design_load_heating_ceilings_btu_h",
                  "value" : 1633.0
               },
               {
                  "name" : "hvac_design_load_heating_infiltration_btu_h",
                  "value" : 14812.0
               },
               {
                  "name" : "hvac_design_load_heating_ventilation_btu_h",
                  "value" : 0.0
               },
               {
                  "name" : "hvac_design_load_heating_piping_btu_h",
                  "value" : 0.0
               },
               {
                  "name" : "hvac_design_load_cooling_sensible_total_btu_h",
                  "value" : 37878.0
               },
               {
                  "name" : "hvac_design_load_cooling_sensible_ducts_btu_h",
                  "value" : 18476.0
               },
               {
                  "name" : "hvac_design_load_cooling_sensible_windows_btu_h",
                  "value" : 2996.0
               },
               {
                  "name" : "hvac_design_load_cooling_sensible_skylights_btu_h",
                  "value" : 0.0
               },
               {
                  "name" : "hvac_design_load_cooling_sensible_doors_btu_h",
                  "value" : 126.0
               },
               {
                  "name" : "hvac_design_load_cooling_sensible_walls_btu_h",
                  "value" : 4204.0
               },
               {
                  "name" : "hvac_design_load_cooling_sensible_roofs_btu_h",
                  "value" : 0.0
               },
               {
                  "name" : "hvac_design_load_cooling_sensible_floors_btu_h",
                  "value" : 2978.0
               },
               {
                  "name" : "hvac_design_load_cooling_sensible_slabs_btu_h",
                  "value" : 0.0
               },
               {
                  "name" : "hvac_design_load_cooling_sensible_ceilings_btu_h",
                  "value" : 1979.0
               },
               {
                  "name" : "hvac_design_load_cooling_sensible_infiltration_btu_h",
                  "value" : 3799.0
               },
               {
                  "name" : "hvac_design_load_cooling_sensible_ventilation_btu_h",
                  "value" : 0.0
               },
               {
                  "name" : "hvac_design_load_cooling_sensible_internal_gains_btu_h",
                  "value" : 3320.0
               },
               {
                  "name" : "hvac_design_load_cooling_sensible_blower_heat_btu_h",
                  "value" : 0.0
               },
               {
                  "name" : "hvac_design_load_cooling_sensible_aed_excursion_btu_h",
                  "value" : 0.0
               },
               {
                  "name" : "hvac_design_load_cooling_latent_total_btu_h",
                  "value" : 14775.0
               },
               {
                  "name" : "hvac_design_load_cooling_latent_ducts_btu_h",
                  "value" : 6113.0
               },
               {
                  "name" : "hvac_design_load_cooling_latent_infiltration_btu_h",
                  "value" : 7862.0
               },
               {
                  "name" : "hvac_design_load_cooling_latent_ventilation_btu_h",
                  "value" : 0.0
               },
               {
                  "name" : "hvac_design_load_cooling_latent_internal_gains_btu_h",
                  "value" : 800.0
               },
               {
                  "name" : "hvac_geothermal_loop_borehole_trench_count",
                  "value" : 0
               },
               {
                  "name" : "hvac_geothermal_loop_borehole_trench_length_ft",
                  "value" : 0.0
               }
            ],
            "step_warnings" : []
         }
      },
      {
         "arguments" : 
         {
            "include_annual_bills" : false,
            "include_monthly_bills" : false,
            "register_annual_bills" : true,
            "register_monthly_bills" : false
         },
         "measure_dir_name" : "ReportUtilityBills",
         "result" : 
         {
            "completed_at" : "20241108T185518Z",
            "measure_class_name" : "ReportUtilityBills",
            "measure_display_name" : "Utility Bills Report",
            "measure_name" : "report_utility_bills",
            "measure_taxonomy" : "Reporting.QAQC",
            "measure_type" : "ReportingMeasure",
            "measure_uid" : "ca88a425-e59a-4bc4-af51-c7e7d1e960fe",
            "measure_version_id" : "dd47ff13-28e8-414a-abb6-940ee40e7c55",
            "measure_version_modified" : "20240926T050427Z",
            "measure_xml_checksum" : "15BF4E57",
            "started_at" : "20241108T185518Z",
            "stderr" : "",
            "stdout" : "",
            "step_errors" : [],
            "step_files" : [],
            "step_info" : 
            [
               "Registering 2182.56 for bills_total_usd.",
               "Registering 144.0 for bills_electricity_fixed_usd.",
               "Registering 2038.56 for bills_electricity_energy_usd.",
               "Registering 0.0 for bills_electricity_pv_credit_usd.",
               "Registering 2182.56 for bills_electricity_total_usd.",
               "Registering 0.0 for bills_natural_gas_fixed_usd.",
               "Registering 0.0 for bills_natural_gas_energy_usd.",
               "Registering 0.0 for bills_natural_gas_total_usd.",
               "Registering 0.0 for bills_fuel_oil_fixed_usd.",
               "Registering 0.0 for bills_fuel_oil_energy_usd.",
               "Registering 0.0 for bills_fuel_oil_total_usd.",
               "Registering 0.0 for bills_propane_fixed_usd.",
               "Registering 0.0 for bills_propane_energy_usd.",
               "Registering 0.0 for bills_propane_total_usd.",
               "Registering 0.0 for bills_wood_cord_fixed_usd.",
               "Registering 0.0 for bills_wood_cord_energy_usd.",
               "Registering 0.0 for bills_wood_cord_total_usd.",
               "Registering 0.0 for bills_wood_pellets_fixed_usd.",
               "Registering 0.0 for bills_wood_pellets_energy_usd.",
               "Registering 0.0 for bills_wood_pellets_total_usd.",
               "Registering 0.0 for bills_coal_fixed_usd.",
               "Registering 0.0 for bills_coal_energy_usd.",
               "Registering 0.0 for bills_coal_total_usd."
            ],
            "step_result" : "Success",
            "step_values" : 
            [
               {
                  "name" : "output_format",
                  "value" : "csv"
               },
               {
                  "name" : "include_annual_bills",
                  "value" : false
               },
               {
                  "name" : "include_monthly_bills",
                  "value" : false
               },
               {
                  "name" : "monthly_timestamp_convention",
                  "value" : "start"
               },
               {
                  "name" : "register_annual_bills",
                  "value" : true
               },
               {
                  "name" : "register_monthly_bills",
                  "value" : false
               },
               {
                  "name" : "bills_total_usd",
                  "value" : 2182.5599999999999
               },
               {
                  "name" : "bills_electricity_fixed_usd",
                  "value" : 144.0
               },
               {
                  "name" : "bills_electricity_energy_usd",
                  "value" : 2038.5599999999999
               },
               {
                  "name" : "bills_electricity_pv_credit_usd",
                  "value" : 0.0
               },
               {
                  "name" : "bills_electricity_total_usd",
                  "value" : 2182.5599999999999
               },
               {
                  "name" : "bills_natural_gas_fixed_usd",
                  "value" : 0.0
               },
               {
                  "name" : "bills_natural_gas_energy_usd",
                  "value" : 0.0
               },
               {
                  "name" : "bills_natural_gas_total_usd",
                  "value" : 0.0
               },
               {
                  "name" : "bills_fuel_oil_fixed_usd",
                  "value" : 0.0
               },
               {
                  "name" : "bills_fuel_oil_energy_usd",
                  "value" : 0.0
               },
               {
                  "name" : "bills_fuel_oil_total_usd",
                  "value" : 0.0
               },
               {
                  "name" : "bills_propane_fixed_usd",
                  "value" : 0.0
               },
               {
                  "name" : "bills_propane_energy_usd",
                  "value" : 0.0
               },
               {
                  "name" : "bills_propane_total_usd",
                  "value" : 0.0
               },
               {
                  "name" : "bills_wood_cord_fixed_usd",
                  "value" : 0.0
               },
               {
                  "name" : "bills_wood_cord_energy_usd",
                  "value" : 0.0
               },
               {
                  "name" : "bills_wood_cord_total_usd",
                  "value" : 0.0
               },
               {
                  "name" : "bills_wood_pellets_fixed_usd",
                  "value" : 0.0
               },
               {
                  "name" : "bills_wood_pellets_energy_usd",
                  "value" : 0.0
               },
               {
                  "name" : "bills_wood_pellets_total_usd",
                  "value" : 0.0
               },
               {
                  "name" : "bills_coal_fixed_usd",
                  "value" : 0.0
               },
               {
                  "name" : "bills_coal_energy_usd",
                  "value" : 0.0
               },
               {
                  "name" : "bills_coal_total_usd",
                  "value" : 0.0
               }
            ],
            "step_warnings" : []
         }
      },
      {
         "arguments" : {},
         "measure_dir_name" : "QOIReport",
         "result" : 
         {
            "completed_at" : "20241108T185518Z",
            "measure_class_name" : "QOIReport",
            "measure_display_name" : "QOI Report",
            "measure_name" : "qoi_report",
            "measure_taxonomy" : "Reporting.QAQC",
            "measure_type" : "ReportingMeasure",
            "measure_uid" : "be0bfc7f-25c6-435a-9acd-2f5fa8ac817d",
            "measure_version_id" : "88e75066-1ab0-4415-8f5b-1891c9d18f34",
            "measure_version_modified" : "20240822T151507Z",
            "measure_xml_checksum" : "15BF4E57",
            "started_at" : "20241108T185518Z",
            "stderr" : "",
            "stdout" : "",
            "step_errors" : [],
            "step_files" : [],
            "step_info" : 
            [
               "Registering 10.51 for qoi_hourly_peak_magnitude_use_kw.",
               "Registering 102.0 for qoi_hourly_peak_magnitude_timing_hour.",
               "Registering 0.89 for qoi_average_minimum_daily_use_heating_kw.",
               "Registering 0.9 for qoi_average_minimum_daily_use_cooling_kw.",
               "Registering 0.4 for qoi_average_minimum_daily_use_overlap_kw.",
               "Registering 3.82 for qoi_average_maximum_daily_use_heating_kw.",
               "Registering 3.85 for qoi_average_maximum_daily_use_cooling_kw.",
               "Registering 2.86 for qoi_average_maximum_daily_use_overlap_kw.",
               "Registering 12.2 for qoi_average_maximum_daily_timing_heating_hour.",
               "Registering 17.11 for qoi_average_maximum_daily_timing_cooling_hour.",
               "Registering 16.71 for qoi_average_maximum_daily_timing_overlap_hour.",
               "Registering 6.34 for qoi_average_of_top_ten_highest_peaks_use_heating_kw.",
               "Registering 5.29 for qoi_average_of_top_ten_highest_peaks_use_cooling_kw.",
               "Registering 9.55 for qoi_average_of_top_ten_highest_peaks_timing_heating_hour.",
               "Registering 17.82 for qoi_average_of_top_ten_highest_peaks_timing_cooling_hour."
            ],
            "step_result" : "Success",
            "step_values" : 
            [
               {
                  "name" : "qoi_hourly_peak_magnitude_use_kw",
                  "value" : 10.51
               },
               {
                  "name" : "qoi_hourly_peak_magnitude_timing_hour",
                  "value" : 102.0
               },
               {
                  "name" : "qoi_average_minimum_daily_use_heating_kw",
                  "value" : 0.89000000000000001
               },
               {
                  "name" : "qoi_average_minimum_daily_use_cooling_kw",
                  "value" : 0.90000000000000002
               },
               {
                  "name" : "qoi_average_minimum_daily_use_overlap_kw",
                  "value" : 0.40000000000000002
               },
               {
                  "name" : "qoi_average_maximum_daily_use_heating_kw",
                  "value" : 3.8199999999999998
               },
               {
                  "name" : "qoi_average_maximum_daily_use_cooling_kw",
                  "value" : 3.8500000000000001
               },
               {
                  "name" : "qoi_average_maximum_daily_use_overlap_kw",
                  "value" : 2.8599999999999999
               },
               {
                  "name" : "qoi_average_maximum_daily_timing_heating_hour",
                  "value" : 12.199999999999999
               },
               {
                  "name" : "qoi_average_maximum_daily_timing_cooling_hour",
                  "value" : 17.109999999999999
               },
               {
                  "name" : "qoi_average_maximum_daily_timing_overlap_hour",
                  "value" : 16.710000000000001
               },
               {
                  "name" : "qoi_average_of_top_ten_highest_peaks_use_heating_kw",
                  "value" : 6.3399999999999999
               },
               {
                  "name" : "qoi_average_of_top_ten_highest_peaks_use_cooling_kw",
                  "value" : 5.29
               },
               {
                  "name" : "qoi_average_of_top_ten_highest_peaks_timing_heating_hour",
                  "value" : 9.5500000000000007
               },
               {
                  "name" : "qoi_average_of_top_ten_highest_peaks_timing_cooling_hour",
                  "value" : 17.82
               }
            ],
            "step_warnings" : []
         }
      },
      {
         "arguments" : 
         {
            "debug" : false,
            "retain_eplusout_audit" : false,
            "retain_eplusout_bnd" : false,
            "retain_eplusout_eio" : false,
            "retain_eplusout_end" : false,
            "retain_eplusout_err" : false,
            "retain_eplusout_eso" : false,
            "retain_eplusout_mdd" : false,
            "retain_eplusout_msgpack" : false,
            "retain_eplusout_mtd" : false,
            "retain_eplusout_rdd" : false,
            "retain_eplusout_shd" : false,
            "retain_eplustbl_htm" : false,
            "retain_in_idf" : true,
            "retain_in_osm" : false,
            "retain_pre_process_idf" : false,
            "retain_schedules_csv" : true,
            "retain_stdout_energyplus" : false,
            "retain_stdout_expandobject" : false
         },
         "measure_dir_name" : "ServerDirectoryCleanup",
         "result" : 
         {
            "completed_at" : "20241108T185518Z",
            "measure_class_name" : "ServerDirectoryCleanup",
            "measure_display_name" : "Server Directory Cleanup",
            "measure_name" : "server_directory_cleanup",
            "measure_taxonomy" : "Calibration",
            "measure_type" : "ReportingMeasure",
            "measure_uid" : "ec7d04ad-0b7b-495b-825a-e1b6d28d1d3f",
            "measure_version_id" : "3d23b09c-eea6-43f6-be52-4ffed86e2b23",
            "measure_version_modified" : "20240722T222214Z",
            "measure_xml_checksum" : "5F1EDF75",
            "started_at" : "20241108T185518Z",
            "stderr" : "",
            "stdout" : "",
            "step_errors" : [],
            "step_files" : [],
            "step_info" : 
            [
               "Deleted ./../in.osm from the run directory.",
               "Deleted ./../pre-preprocess.idf from the run directory.",
               "Deleted ./../eplusout.end from the run directory.",
               "Deleted ./../eplusout.err from the run directory.",
               "Deleted ./../eplusout.msgpack from the run directory.",
               "Deleted ./../eplusout_hourly.msgpack from the run directory.",
               "Deleted ./../eplusout_runperiod.msgpack from the run directory.",
               "Deleted ./../eplustbl.htm from the run directory.",
               "Deleted ./../stdout-energyplus from the run directory."
            ],
            "step_result" : "Success",
            "step_values" : 
            [
               {
                  "name" : "retain_in_osm",
                  "value" : false
               },
               {
                  "name" : "retain_in_idf",
                  "value" : true
               },
               {
                  "name" : "retain_pre_process_idf",
                  "value" : false
               },
               {
                  "name" : "retain_eplusout_audit",
                  "value" : false
               },
               {
                  "name" : "retain_eplusout_bnd",
                  "value" : false
               },
               {
                  "name" : "retain_eplusout_eio",
                  "value" : false
               },
               {
                  "name" : "retain_eplusout_end",
                  "value" : false
               },
               {
                  "name" : "retain_eplusout_err",
                  "value" : false
               },
               {
                  "name" : "retain_eplusout_eso",
                  "value" : false
               },
               {
                  "name" : "retain_eplusout_mdd",
                  "value" : false
               },
               {
                  "name" : "retain_eplusout_mtd",
                  "value" : false
               },
               {
                  "name" : "retain_eplusout_rdd",
                  "value" : false
               },
               {
                  "name" : "retain_eplusout_shd",
                  "value" : false
               },
               {
                  "name" : "retain_eplusout_msgpack",
                  "value" : false
               },
               {
                  "name" : "retain_eplustbl_htm",
                  "value" : false
               },
               {
                  "name" : "retain_stdout_energyplus",
                  "value" : false
               },
               {
                  "name" : "retain_stdout_expandobject",
                  "value" : false
               },
               {
                  "name" : "retain_schedules_csv",
                  "value" : true
               },
               {
                  "name" : "debug",
                  "value" : false
               }
            ],
            "step_warnings" : []
         }
      }
   ],
   "updated_at" : "20241108T185519Z"
}